
---------- Begin Simulation Statistics ----------
final_tick                               133279060194                       # Number of ticks from beginning of simulation (restored from checkpoints and never reset)
host_inst_rate                                 125743                       # Simulator instruction rate (inst/s)
host_mem_usage                                 689320                       # Number of bytes of host memory used
host_op_rate                                   196454                       # Simulator op (including micro ops) rate (op/s)
host_seconds                                    15.10                       # Real time elapsed on the host
host_tick_rate                             8827283288                       # Simulator tick rate (ticks/s)
sim_freq                                 1000000000000                       # Frequency of simulated ticks
sim_insts                                     1898509                       # Number of instructions simulated
sim_ops                                       2966167                       # Number of ops (including micro ops) simulated
sim_seconds                                  0.133279                       # Number of seconds simulated
sim_ticks                                133279060194                       # Number of ticks simulated
system.clk_domain.clock                           333                       # Clock period in ticks
system.clk_domain.voltage_domain.voltage            1                       # Voltage in Volts
system.cpu.Branches                            249735                       # Number of branches fetched
system.cpu.committedInsts                     1898509                       # Number of instructions committed
system.cpu.committedOps                       2966167                       # Number of ops (including micro ops) committed
system.cpu.dtb.rdAccesses                      507281                       # TLB accesses on read requests
system.cpu.dtb.rdMisses                            23                       # TLB misses on read requests
system.cpu.dtb.walker.pwrStateResidencyTicks::UNDEFINED 133279060194                       # Cumulative time (in ticks) in various power states
system.cpu.dtb.wrAccesses                      182294                       # TLB accesses on write requests
system.cpu.dtb.wrMisses                            30                       # TLB misses on write requests
system.cpu.idle_fraction                     0.000000                       # Percentage of idle cycles
system.cpu.interrupts.clk_domain.clock           5328                       # Clock period in ticks
system.cpu.interrupts.pwrStateResidencyTicks::UNDEFINED 133279060194                       # Cumulative time (in ticks) in various power states
system.cpu.itb.rdAccesses                           0                       # TLB accesses on read requests
system.cpu.itb.rdMisses                             0                       # TLB misses on read requests
system.cpu.itb.walker.pwrStateResidencyTicks::UNDEFINED 133279060194                       # Cumulative time (in ticks) in various power states
system.cpu.itb.wrAccesses                     2471856                       # TLB accesses on write requests
system.cpu.itb.wrMisses                            93                       # TLB misses on write requests
system.cpu.not_idle_fraction                 1.000000                       # Percentage of non-idle cycles
system.cpu.numCycles                        400237418                       # number of cpu cycles simulated
system.cpu.numWorkItemsCompleted                    0                       # number of work items this cpu completed
system.cpu.numWorkItemsStarted                      0                       # number of work items this cpu started
system.cpu.num_busy_cycles               400237417.996997                       # Number of busy cycles
system.cpu.num_cc_register_reads              1138812                       # number of times the CC registers were read
system.cpu.num_cc_register_writes             1461191                       # number of times the CC registers were written
system.cpu.num_conditional_control_insts       150208                       # number of instructions that are conditional controls
system.cpu.num_fp_alu_accesses                   4769                       # Number of float alu accesses
system.cpu.num_fp_insts                          4769                       # number of float instructions
system.cpu.num_fp_register_reads                 8363                       # number of times the floating registers were read
system.cpu.num_fp_register_writes                3830                       # number of times the floating registers were written
system.cpu.num_func_calls                       66976                       # number of times a function call or return occured
system.cpu.num_idle_cycles                   0.003003                       # Number of idle cycles
system.cpu.num_int_alu_accesses               2962239                       # Number of integer alu accesses
system.cpu.num_int_insts                      2962239                       # number of integer instructions
system.cpu.num_int_register_reads             6035500                       # number of times the integer registers were read
system.cpu.num_int_register_writes            2550728                       # number of times the integer registers were written
system.cpu.num_load_insts                      507268                       # Number of load instructions
system.cpu.num_mem_refs                        689548                       # number of memory refs
system.cpu.num_store_insts                     182280                       # Number of store instructions
system.cpu.num_vec_alu_accesses                     0                       # Number of vector alu accesses
system.cpu.num_vec_insts                            0                       # number of vector instructions
system.cpu.num_vec_register_reads                   0                       # number of times the vector registers were read
system.cpu.num_vec_register_writes                  0                       # number of times the vector registers were written
system.cpu.op_class::No_OpClass                   661      0.02%      0.02% # Class of executed instruction
system.cpu.op_class::IntAlu                   2252007     75.92%     75.95% # Class of executed instruction
system.cpu.op_class::IntMult                    20705      0.70%     76.64% # Class of executed instruction
system.cpu.op_class::IntDiv                        28      0.00%     76.64% # Class of executed instruction
system.cpu.op_class::FloatAdd                      10      0.00%     76.64% # Class of executed instruction
system.cpu.op_class::FloatCmp                       0      0.00%     76.64% # Class of executed instruction
system.cpu.op_class::FloatCvt                       0      0.00%     76.64% # Class of executed instruction
system.cpu.op_class::FloatMult                      0      0.00%     76.64% # Class of executed instruction
system.cpu.op_class::FloatMultAcc                   0      0.00%     76.64% # Class of executed instruction
system.cpu.op_class::FloatDiv                       0      0.00%     76.64% # Class of executed instruction
system.cpu.op_class::FloatMisc                      0      0.00%     76.64% # Class of executed instruction
system.cpu.op_class::FloatSqrt                      0      0.00%     76.64% # Class of executed instruction
system.cpu.op_class::SimdAdd                      390      0.01%     76.66% # Class of executed instruction
system.cpu.op_class::SimdAddAcc                     0      0.00%     76.66% # Class of executed instruction
system.cpu.op_class::SimdAlu                     1438      0.05%     76.71% # Class of executed instruction
system.cpu.op_class::SimdCmp                        0      0.00%     76.71% # Class of executed instruction
system.cpu.op_class::SimdCvt                      552      0.02%     76.72% # Class of executed instruction
system.cpu.op_class::SimdMisc                     642      0.02%     76.75% # Class of executed instruction
system.cpu.op_class::SimdMult                       0      0.00%     76.75% # Class of executed instruction
system.cpu.op_class::SimdMultAcc                    0      0.00%     76.75% # Class of executed instruction
system.cpu.op_class::SimdShift                    186      0.01%     76.75% # Class of executed instruction
system.cpu.op_class::SimdShiftAcc                   0      0.00%     76.75% # Class of executed instruction
system.cpu.op_class::SimdDiv                        0      0.00%     76.75% # Class of executed instruction
system.cpu.op_class::SimdSqrt                       0      0.00%     76.75% # Class of executed instruction
system.cpu.op_class::SimdFloatAdd                   0      0.00%     76.75% # Class of executed instruction
system.cpu.op_class::SimdFloatAlu                   0      0.00%     76.75% # Class of executed instruction
system.cpu.op_class::SimdFloatCmp                   0      0.00%     76.75% # Class of executed instruction
system.cpu.op_class::SimdFloatCvt                   0      0.00%     76.75% # Class of executed instruction
system.cpu.op_class::SimdFloatDiv                   0      0.00%     76.75% # Class of executed instruction
system.cpu.op_class::SimdFloatMisc                  0      0.00%     76.75% # Class of executed instruction
system.cpu.op_class::SimdFloatMult                  0      0.00%     76.75% # Class of executed instruction
system.cpu.op_class::SimdFloatMultAcc               0      0.00%     76.75% # Class of executed instruction
system.cpu.op_class::SimdFloatSqrt                  0      0.00%     76.75% # Class of executed instruction
system.cpu.op_class::SimdReduceAdd                  0      0.00%     76.75% # Class of executed instruction
system.cpu.op_class::SimdReduceAlu                  0      0.00%     76.75% # Class of executed instruction
system.cpu.op_class::SimdReduceCmp                  0      0.00%     76.75% # Class of executed instruction
system.cpu.op_class::SimdFloatReduceAdd             0      0.00%     76.75% # Class of executed instruction
system.cpu.op_class::SimdFloatReduceCmp             0      0.00%     76.75% # Class of executed instruction
system.cpu.op_class::SimdAes                        0      0.00%     76.75% # Class of executed instruction
system.cpu.op_class::SimdAesMix                     0      0.00%     76.75% # Class of executed instruction
system.cpu.op_class::SimdSha1Hash                   0      0.00%     76.75% # Class of executed instruction
system.cpu.op_class::SimdSha1Hash2                  0      0.00%     76.75% # Class of executed instruction
system.cpu.op_class::SimdSha256Hash                 0      0.00%     76.75% # Class of executed instruction
system.cpu.op_class::SimdSha256Hash2                0      0.00%     76.75% # Class of executed instruction
system.cpu.op_class::SimdShaSigma2                  0      0.00%     76.75% # Class of executed instruction
system.cpu.op_class::SimdShaSigma3                  0      0.00%     76.75% # Class of executed instruction
system.cpu.op_class::SimdPredAlu                    0      0.00%     76.75% # Class of executed instruction
system.cpu.op_class::MemRead                   506692     17.08%     93.84% # Class of executed instruction
system.cpu.op_class::MemWrite                  181817      6.13%     99.96% # Class of executed instruction
system.cpu.op_class::FloatMemRead                 576      0.02%     99.98% # Class of executed instruction
system.cpu.op_class::FloatMemWrite                463      0.02%    100.00% # Class of executed instruction
system.cpu.op_class::IprAccess                      0      0.00%    100.00% # Class of executed instruction
system.cpu.op_class::InstPrefetch                   0      0.00%    100.00% # Class of executed instruction
system.cpu.op_class::total                    2966167                       # Class of executed instruction
system.cpu.pwrStateResidencyTicks::ON    133279060194                       # Cumulative time (in ticks) in various power states
system.cpu.workload.numSyscalls                    11                       # Number of system calls
system.mem_ctrl.avgBusLat                     5000.00                       # Average bus latency per DRAM burst
system.mem_ctrl.avgGap                       42157.79                       # Average gap between requests
system.mem_ctrl.avgMemAccLat                 21563.44                       # Average memory access latency per DRAM burst
system.mem_ctrl.avgPriority_.cpu.inst::samples   2471856.00                       # Average QoS priority value for accepted requests
system.mem_ctrl.avgPriority_.cpu.data::samples    394328.00                       # Average QoS priority value for accepted requests
system.mem_ctrl.avgQLat                       2813.44                       # Average queueing delay per DRAM burst
system.mem_ctrl.avgRdBW                       1375.34                       # Average DRAM read bandwidth in MiByte/s
system.mem_ctrl.avgRdBWSys                     168.88                       # Average system read bandwidth in MiByte/s
system.mem_ctrl.avgRdQLen                        1.00                       # Average read queue length when enqueuing
system.mem_ctrl.avgWrBW                          0.97                       # Average achieved write bandwidth in MiByte/s
system.mem_ctrl.avgWrBWSys                       7.72                       # Average system write bandwidth in MiByte/s
system.mem_ctrl.avgWrQLen                       24.92                       # Average write queue length when enqueuing
system.mem_ctrl.busUtil                         10.75                       # Data bus utilization in percentage
system.mem_ctrl.busUtilRead                     10.74                       # Data bus utilization in percentage for reads
system.mem_ctrl.busUtilWrite                     0.01                       # Data bus utilization in percentage for writes
system.mem_ctrl.bw_inst_read::.cpu.inst     148371755                       # Instruction read bandwidth from this memory (bytes/s)
system.mem_ctrl.bw_inst_read::total         148371755                       # Instruction read bandwidth from this memory (bytes/s)
system.mem_ctrl.bw_read::.cpu.inst          148371755                       # Total read bandwidth from this memory (bytes/s)
system.mem_ctrl.bw_read::.cpu.data           20506665                       # Total read bandwidth from this memory (bytes/s)
system.mem_ctrl.bw_read::total              168878419                       # Total read bandwidth from this memory (bytes/s)
system.mem_ctrl.bw_total::.cpu.inst         148371755                       # Total bandwidth to/from this memory (bytes/s)
system.mem_ctrl.bw_total::.cpu.data          28229116                       # Total bandwidth to/from this memory (bytes/s)
system.mem_ctrl.bw_total::total             176600870                       # Total bandwidth to/from this memory (bytes/s)
system.mem_ctrl.bw_write::.cpu.data           7722451                       # Write bandwidth from this memory (bytes/s)
system.mem_ctrl.bw_write::total               7722451                       # Write bandwidth from this memory (bytes/s)
system.mem_ctrl.bytesPerActivate::samples       242072                       # Bytes accessed per row activation
system.mem_ctrl.bytesPerActivate::mean     757.760402                       # Bytes accessed per row activation
system.mem_ctrl.bytesPerActivate::gmean    595.083869                       # Bytes accessed per row activation
system.mem_ctrl.bytesPerActivate::stdev    358.786665                       # Bytes accessed per row activation
system.mem_ctrl.bytesPerActivate::0-127         16268      6.72%      6.72% # Bytes accessed per row activation
system.mem_ctrl.bytesPerActivate::128-255        23570      9.74%     16.46% # Bytes accessed per row activation
system.mem_ctrl.bytesPerActivate::256-383         7672      3.17%     19.63% # Bytes accessed per row activation
system.mem_ctrl.bytesPerActivate::384-511        14432      5.96%     25.59% # Bytes accessed per row activation
system.mem_ctrl.bytesPerActivate::512-639        16470      6.80%     32.39% # Bytes accessed per row activation
system.mem_ctrl.bytesPerActivate::640-767         9012      3.72%     36.11% # Bytes accessed per row activation
system.mem_ctrl.bytesPerActivate::768-895         7851      3.24%     39.36% # Bytes accessed per row activation
system.mem_ctrl.bytesPerActivate::896-1023         6491      2.68%     42.04% # Bytes accessed per row activation
system.mem_ctrl.bytesPerActivate::1024-1151       140306     57.96%    100.00% # Bytes accessed per row activation
system.mem_ctrl.bytesPerActivate::total        242072                       # Bytes accessed per row activation
system.mem_ctrl.bytesReadDRAM               183304640                       # Total number of bytes read from DRAM
system.mem_ctrl.bytesReadSys                 22507957                       # Total read bytes from the system interface side
system.mem_ctrl.bytesReadWrQ                  7360128                       # Total number of bytes read from write queue
system.mem_ctrl.bytesWritten                   129152                       # Total number of bytes written to DRAM
system.mem_ctrl.bytesWrittenSys               1029241                       # Total written bytes from the system interface side
system.mem_ctrl.bytes_inst_read::.cpu.inst     19774848                       # Number of instructions bytes read from this memory
system.mem_ctrl.bytes_inst_read::total       19774848                       # Number of instructions bytes read from this memory
system.mem_ctrl.bytes_read::.cpu.inst        19774848                       # Number of bytes read from this memory
system.mem_ctrl.bytes_read::.cpu.data         2733109                       # Number of bytes read from this memory
system.mem_ctrl.bytes_read::total            22507957                       # Number of bytes read from this memory
system.mem_ctrl.bytes_written::.cpu.data      1029241                       # Number of bytes written to this memory
system.mem_ctrl.bytes_written::total          1029241                       # Number of bytes written to this memory
system.mem_ctrl.masterReadAccesses::.cpu.inst      2471856                       # Per-master read serviced memory accesses
system.mem_ctrl.masterReadAccesses::.cpu.data       507281                       # Per-master read serviced memory accesses
system.mem_ctrl.masterReadAvgLat::.cpu.inst     21337.02                       # Per-master read average memory access latency
system.mem_ctrl.masterReadAvgLat::.cpu.data     17778.22                       # Per-master read average memory access latency
system.mem_ctrl.masterReadBytes::.cpu.inst     19774848                       # Per-master bytes read from memory
system.mem_ctrl.masterReadBytes::.cpu.data      2192284                       # Per-master bytes read from memory
system.mem_ctrl.masterReadRate::.cpu.inst 148371754.506791114807                       # Per-master bytes read from memory rate (Bytes/sec)
system.mem_ctrl.masterReadRate::.cpu.data 16448825.470474718139                       # Per-master bytes read from memory rate (Bytes/sec)
system.mem_ctrl.masterReadTotalLat::.cpu.inst  52742052787                       # Per-master read total memory access latency
system.mem_ctrl.masterReadTotalLat::.cpu.data   9018551433                       # Per-master read total memory access latency
system.mem_ctrl.masterWriteAccesses::.cpu.data       182294                       # Per-master write serviced memory accesses
system.mem_ctrl.masterWriteAvgLat::.cpu.data  18051352.14                       # Per-master write average memory access latency
system.mem_ctrl.masterWriteBytes::.cpu.data         9719                       # Per-master bytes write to memory
system.mem_ctrl.masterWriteRate::.cpu.data 72922.182868434829                       # Per-master bytes write to memory rate (Bytes/sec)
system.mem_ctrl.masterWriteTotalLat::.cpu.data 3290653187861                       # Per-master write total memory access latency
system.mem_ctrl.mergedWrBursts                 180245                       # Number of DRAM write bursts merged with an existing one
system.mem_ctrl.neitherReadNorWriteReqs             0                       # Number of requests that are neither read nor write
system.mem_ctrl.numRdRetry                          0                       # Number of times read queue was full causing retry
system.mem_ctrl.numReadWriteTurnArounds           126                       # Number of turnarounds from READ to WRITE
system.mem_ctrl.numStayReadState              5944648                       # Number of times bus staying in READ state
system.mem_ctrl.numStayWriteState                1911                       # Number of times bus staying in WRITE state
system.mem_ctrl.numWrRetry                          0                       # Number of times write queue was full causing retry
system.mem_ctrl.numWriteReadTurnArounds           126                       # Number of turnarounds from WRITE to READ
system.mem_ctrl.num_reads::.cpu.inst          2471856                       # Number of read requests responded to by this memory
system.mem_ctrl.num_reads::.cpu.data           507281                       # Number of read requests responded to by this memory
system.mem_ctrl.num_reads::total              2979137                       # Number of read requests responded to by this memory
system.mem_ctrl.num_writes::.cpu.data          182294                       # Number of write requests responded to by this memory
system.mem_ctrl.num_writes::total              182294                       # Number of write requests responded to by this memory
system.mem_ctrl.pageHitRate                     91.55                       # Row buffer hit rate, read and write combined
system.mem_ctrl.peakBW                       12800.00                       # Theoretical peak bandwidth in MiByte/s
system.mem_ctrl.perBankRdBursts::0            1666894                       # Per bank write bursts
system.mem_ctrl.perBankRdBursts::1              46940                       # Per bank write bursts
system.mem_ctrl.perBankRdBursts::2             674675                       # Per bank write bursts
system.mem_ctrl.perBankRdBursts::3               2223                       # Per bank write bursts
system.mem_ctrl.perBankRdBursts::4               7087                       # Per bank write bursts
system.mem_ctrl.perBankRdBursts::5               2626                       # Per bank write bursts
system.mem_ctrl.perBankRdBursts::6              53824                       # Per bank write bursts
system.mem_ctrl.perBankRdBursts::7               2986                       # Per bank write bursts
system.mem_ctrl.perBankRdBursts::8               3475                       # Per bank write bursts
system.mem_ctrl.perBankRdBursts::9              24494                       # Per bank write bursts
system.mem_ctrl.perBankRdBursts::10              3850                       # Per bank write bursts
system.mem_ctrl.perBankRdBursts::11              4845                       # Per bank write bursts
system.mem_ctrl.perBankRdBursts::12            270414                       # Per bank write bursts
system.mem_ctrl.perBankRdBursts::13             69039                       # Per bank write bursts
system.mem_ctrl.perBankRdBursts::14              3507                       # Per bank write bursts
system.mem_ctrl.perBankRdBursts::15             27256                       # Per bank write bursts
system.mem_ctrl.perBankWrBursts::0                138                       # Per bank write bursts
system.mem_ctrl.perBankWrBursts::1                 10                       # Per bank write bursts
system.mem_ctrl.perBankWrBursts::2                115                       # Per bank write bursts
system.mem_ctrl.perBankWrBursts::3                 64                       # Per bank write bursts
system.mem_ctrl.perBankWrBursts::4                128                       # Per bank write bursts
system.mem_ctrl.perBankWrBursts::5                128                       # Per bank write bursts
system.mem_ctrl.perBankWrBursts::6                128                       # Per bank write bursts
system.mem_ctrl.perBankWrBursts::7                128                       # Per bank write bursts
system.mem_ctrl.perBankWrBursts::8                128                       # Per bank write bursts
system.mem_ctrl.perBankWrBursts::9                128                       # Per bank write bursts
system.mem_ctrl.perBankWrBursts::10               128                       # Per bank write bursts
system.mem_ctrl.perBankWrBursts::11               132                       # Per bank write bursts
system.mem_ctrl.perBankWrBursts::12               237                       # Per bank write bursts
system.mem_ctrl.perBankWrBursts::13               190                       # Per bank write bursts
system.mem_ctrl.perBankWrBursts::14               101                       # Per bank write bursts
system.mem_ctrl.perBankWrBursts::15               135                       # Per bank write bursts
system.mem_ctrl.priorityMaxLatency       0.090561638906                       # per QoS priority maximum request to response latency (s)
system.mem_ctrl.priorityMinLatency       0.000000018750                       # per QoS priority minimum request to response latency (s)
system.mem_ctrl.pwrStateResidencyTicks::UNDEFINED 133279060194                       # Cumulative time (in ticks) in various power states
system.mem_ctrl.rdPerTurnAround::samples          126                       # Reads before turning the bus around for writes
system.mem_ctrl.rdPerTurnAround::mean    22717.277778                       # Reads before turning the bus around for writes
system.mem_ctrl.rdPerTurnAround::gmean   10190.479958                       # Reads before turning the bus around for writes
system.mem_ctrl.rdPerTurnAround::stdev   87925.669341                       # Reads before turning the bus around for writes
system.mem_ctrl.rdPerTurnAround::0-32767          124     98.41%     98.41% # Reads before turning the bus around for writes
system.mem_ctrl.rdPerTurnAround::65536-98303            1      0.79%     99.21% # Reads before turning the bus around for writes
system.mem_ctrl.rdPerTurnAround::983040-1.01581e+06            1      0.79%    100.00% # Reads before turning the bus around for writes
system.mem_ctrl.rdPerTurnAround::total            126                       # Reads before turning the bus around for writes
system.mem_ctrl.rdQLenPdf::0                  2864125                       # What read queue length does an incoming req see
system.mem_ctrl.rdQLenPdf::1                       10                       # What read queue length does an incoming req see
system.mem_ctrl.rdQLenPdf::2                        0                       # What read queue length does an incoming req see
system.mem_ctrl.rdQLenPdf::3                        0                       # What read queue length does an incoming req see
system.mem_ctrl.rdQLenPdf::4                        0                       # What read queue length does an incoming req see
system.mem_ctrl.rdQLenPdf::5                        0                       # What read queue length does an incoming req see
system.mem_ctrl.rdQLenPdf::6                        0                       # What read queue length does an incoming req see
system.mem_ctrl.rdQLenPdf::7                        0                       # What read queue length does an incoming req see
system.mem_ctrl.rdQLenPdf::8                        0                       # What read queue length does an incoming req see
system.mem_ctrl.rdQLenPdf::9                        0                       # What read queue length does an incoming req see
system.mem_ctrl.rdQLenPdf::10                       0                       # What read queue length does an incoming req see
system.mem_ctrl.rdQLenPdf::11                       0                       # What read queue length does an incoming req see
system.mem_ctrl.rdQLenPdf::12                       0                       # What read queue length does an incoming req see
system.mem_ctrl.rdQLenPdf::13                       0                       # What read queue length does an incoming req see
system.mem_ctrl.rdQLenPdf::14                       0                       # What read queue length does an incoming req see
system.mem_ctrl.rdQLenPdf::15                       0                       # What read queue length does an incoming req see
system.mem_ctrl.rdQLenPdf::16                       0                       # What read queue length does an incoming req see
system.mem_ctrl.rdQLenPdf::17                       0                       # What read queue length does an incoming req see
system.mem_ctrl.rdQLenPdf::18                       0                       # What read queue length does an incoming req see
system.mem_ctrl.rdQLenPdf::19                       0                       # What read queue length does an incoming req see
system.mem_ctrl.rdQLenPdf::20                       0                       # What read queue length does an incoming req see
system.mem_ctrl.rdQLenPdf::21                       0                       # What read queue length does an incoming req see
system.mem_ctrl.rdQLenPdf::22                       0                       # What read queue length does an incoming req see
system.mem_ctrl.rdQLenPdf::23                       0                       # What read queue length does an incoming req see
system.mem_ctrl.rdQLenPdf::24                       0                       # What read queue length does an incoming req see
system.mem_ctrl.rdQLenPdf::25                       0                       # What read queue length does an incoming req see
system.mem_ctrl.rdQLenPdf::26                       0                       # What read queue length does an incoming req see
system.mem_ctrl.rdQLenPdf::27                       0                       # What read queue length does an incoming req see
system.mem_ctrl.rdQLenPdf::28                       0                       # What read queue length does an incoming req see
system.mem_ctrl.rdQLenPdf::29                       0                       # What read queue length does an incoming req see
system.mem_ctrl.rdQLenPdf::30                       0                       # What read queue length does an incoming req see
system.mem_ctrl.rdQLenPdf::31                       0                       # What read queue length does an incoming req see
system.mem_ctrl.readBursts                    2979137                       # Number of DRAM read bursts, including those serviced by the write queue
system.mem_ctrl.readPktSize::0                   2371                       # Read request sizes (log2)
system.mem_ctrl.readPktSize::1                     19                       # Read request sizes (log2)
system.mem_ctrl.readPktSize::2                 327103                       # Read request sizes (log2)
system.mem_ctrl.readPktSize::3                2649644                       # Read request sizes (log2)
system.mem_ctrl.readPktSize::4                      0                       # Read request sizes (log2)
system.mem_ctrl.readPktSize::5                      0                       # Read request sizes (log2)
system.mem_ctrl.readPktSize::6                      0                       # Read request sizes (log2)
system.mem_ctrl.readReqs                      2979137                       # Number of read requests accepted
system.mem_ctrl.readRowHitRate                  91.55                       # Row buffer hit rate for reads
system.mem_ctrl.readRowHits                   2622223                       # Number of row buffer hits during reads
system.mem_ctrl.servicedByWrQ                  115002                       # Number of DRAM read bursts serviced by the write queue
system.mem_ctrl.totBusLat                 14320675000                       # Total ticks spent in databus transfers
system.mem_ctrl.totGap                   133278948306                       # Total gap between requests
system.mem_ctrl.totMemAccLat              61760604220                       # Total ticks spent from burst creation until serviced by the DRAM
system.mem_ctrl.totQLat                    8058072970                       # Total ticks spent queuing
system.mem_ctrl.wrPerTurnAround::samples          126                       # Writes before turning the bus around for reads
system.mem_ctrl.wrPerTurnAround::mean       16.015873                       # Writes before turning the bus around for reads
system.mem_ctrl.wrPerTurnAround::gmean      16.014964                       # Writes before turning the bus around for reads
system.mem_ctrl.wrPerTurnAround::stdev       0.178174                       # Writes before turning the bus around for reads
system.mem_ctrl.wrPerTurnAround::16               125     99.21%     99.21% # Writes before turning the bus around for reads
system.mem_ctrl.wrPerTurnAround::18                 1      0.79%    100.00% # Writes before turning the bus around for reads
system.mem_ctrl.wrPerTurnAround::total            126                       # Writes before turning the bus around for reads
system.mem_ctrl.wrQLenPdf::0                        1                       # What write queue length does an incoming req see
system.mem_ctrl.wrQLenPdf::1                        1                       # What write queue length does an incoming req see
system.mem_ctrl.wrQLenPdf::2                        1                       # What write queue length does an incoming req see
system.mem_ctrl.wrQLenPdf::3                        1                       # What write queue length does an incoming req see
system.mem_ctrl.wrQLenPdf::4                        1                       # What write queue length does an incoming req see
system.mem_ctrl.wrQLenPdf::5                        1                       # What write queue length does an incoming req see
system.mem_ctrl.wrQLenPdf::6                        1                       # What write queue length does an incoming req see
system.mem_ctrl.wrQLenPdf::7                        1                       # What write queue length does an incoming req see
system.mem_ctrl.wrQLenPdf::8                        1                       # What write queue length does an incoming req see
system.mem_ctrl.wrQLenPdf::9                        1                       # What write queue length does an incoming req see
system.mem_ctrl.wrQLenPdf::10                       1                       # What write queue length does an incoming req see
system.mem_ctrl.wrQLenPdf::11                       1                       # What write queue length does an incoming req see
system.mem_ctrl.wrQLenPdf::12                       1                       # What write queue length does an incoming req see
system.mem_ctrl.wrQLenPdf::13                       1                       # What write queue length does an incoming req see
system.mem_ctrl.wrQLenPdf::14                       1                       # What write queue length does an incoming req see
system.mem_ctrl.wrQLenPdf::15                       2                       # What write queue length does an incoming req see
system.mem_ctrl.wrQLenPdf::16                       2                       # What write queue length does an incoming req see
system.mem_ctrl.wrQLenPdf::17                     127                       # What write queue length does an incoming req see
system.mem_ctrl.wrQLenPdf::18                     127                       # What write queue length does an incoming req see
system.mem_ctrl.wrQLenPdf::19                     127                       # What write queue length does an incoming req see
system.mem_ctrl.wrQLenPdf::20                     127                       # What write queue length does an incoming req see
system.mem_ctrl.wrQLenPdf::21                     127                       # What write queue length does an incoming req see
system.mem_ctrl.wrQLenPdf::22                     127                       # What write queue length does an incoming req see
system.mem_ctrl.wrQLenPdf::23                     127                       # What write queue length does an incoming req see
system.mem_ctrl.wrQLenPdf::24                     127                       # What write queue length does an incoming req see
system.mem_ctrl.wrQLenPdf::25                     127                       # What write queue length does an incoming req see
system.mem_ctrl.wrQLenPdf::26                     127                       # What write queue length does an incoming req see
system.mem_ctrl.wrQLenPdf::27                     127                       # What write queue length does an incoming req see
system.mem_ctrl.wrQLenPdf::28                     127                       # What write queue length does an incoming req see
system.mem_ctrl.wrQLenPdf::29                     127                       # What write queue length does an incoming req see
system.mem_ctrl.wrQLenPdf::30                     127                       # What write queue length does an incoming req see
system.mem_ctrl.wrQLenPdf::31                     126                       # What write queue length does an incoming req see
system.mem_ctrl.wrQLenPdf::32                     126                       # What write queue length does an incoming req see
system.mem_ctrl.wrQLenPdf::33                       0                       # What write queue length does an incoming req see
system.mem_ctrl.wrQLenPdf::34                       0                       # What write queue length does an incoming req see
system.mem_ctrl.wrQLenPdf::35                       0                       # What write queue length does an incoming req see
system.mem_ctrl.wrQLenPdf::36                       0                       # What write queue length does an incoming req see
system.mem_ctrl.wrQLenPdf::37                       0                       # What write queue length does an incoming req see
system.mem_ctrl.wrQLenPdf::38                       0                       # What write queue length does an incoming req see
system.mem_ctrl.wrQLenPdf::39                       0                       # What write queue length does an incoming req see
system.mem_ctrl.wrQLenPdf::40                       0                       # What write queue length does an incoming req see
system.mem_ctrl.wrQLenPdf::41                       0                       # What write queue length does an incoming req see
system.mem_ctrl.wrQLenPdf::42                       0                       # What write queue length does an incoming req see
system.mem_ctrl.wrQLenPdf::43                       0                       # What write queue length does an incoming req see
system.mem_ctrl.wrQLenPdf::44                       0                       # What write queue length does an incoming req see
system.mem_ctrl.wrQLenPdf::45                       0                       # What write queue length does an incoming req see
system.mem_ctrl.wrQLenPdf::46                       0                       # What write queue length does an incoming req see
system.mem_ctrl.wrQLenPdf::47                       0                       # What write queue length does an incoming req see
system.mem_ctrl.wrQLenPdf::48                       0                       # What write queue length does an incoming req see
system.mem_ctrl.wrQLenPdf::49                       0                       # What write queue length does an incoming req see
system.mem_ctrl.wrQLenPdf::50                       0                       # What write queue length does an incoming req see
system.mem_ctrl.wrQLenPdf::51                       0                       # What write queue length does an incoming req see
system.mem_ctrl.wrQLenPdf::52                       0                       # What write queue length does an incoming req see
system.mem_ctrl.wrQLenPdf::53                       0                       # What write queue length does an incoming req see
system.mem_ctrl.wrQLenPdf::54                       0                       # What write queue length does an incoming req see
system.mem_ctrl.wrQLenPdf::55                       0                       # What write queue length does an incoming req see
system.mem_ctrl.wrQLenPdf::56                       0                       # What write queue length does an incoming req see
system.mem_ctrl.wrQLenPdf::57                       0                       # What write queue length does an incoming req see
system.mem_ctrl.wrQLenPdf::58                       0                       # What write queue length does an incoming req see
system.mem_ctrl.wrQLenPdf::59                       0                       # What write queue length does an incoming req see
system.mem_ctrl.wrQLenPdf::60                       0                       # What write queue length does an incoming req see
system.mem_ctrl.wrQLenPdf::61                       0                       # What write queue length does an incoming req see
system.mem_ctrl.wrQLenPdf::62                       0                       # What write queue length does an incoming req see
system.mem_ctrl.wrQLenPdf::63                       0                       # What write queue length does an incoming req see
system.mem_ctrl.writeBursts                    182294                       # Number of DRAM write bursts, including those merged in the write queue
system.mem_ctrl.writePktSize::0                  1609                       # Write request sizes (log2)
system.mem_ctrl.writePktSize::1                    27                       # Write request sizes (log2)
system.mem_ctrl.writePktSize::2                104419                       # Write request sizes (log2)
system.mem_ctrl.writePktSize::3                 76239                       # Write request sizes (log2)
system.mem_ctrl.writePktSize::4                     0                       # Write request sizes (log2)
system.mem_ctrl.writePktSize::5                     0                       # Write request sizes (log2)
system.mem_ctrl.writePktSize::6                     0                       # Write request sizes (log2)
system.mem_ctrl.writeReqs                      182294                       # Number of write requests accepted
system.mem_ctrl.writeRowHitRate                 90.53                       # Row buffer hit rate for writes
system.mem_ctrl.writeRowHits                     1855                       # Number of row buffer hits during writes
system.mem_ctrl_0.actBackEnergy           59256724050                       # Energy for active background per rank (pJ)
system.mem_ctrl_0.actEnergy                1416361800                       # Energy for activate commands per rank (pJ)
system.mem_ctrl_0.actPowerDownEnergy                0                       # Energy for active power-down per rank (pJ)
system.mem_ctrl_0.averagePower             681.086930                       # Core power per rank (mW)
system.mem_ctrl_0.memoryStateTime::IDLE    2238471908                       # Time in different power states
system.mem_ctrl_0.memoryStateTime::REF     4450420000                       # Time in different power states
system.mem_ctrl_0.memoryStateTime::SREF             0                       # Time in different power states
system.mem_ctrl_0.memoryStateTime::PRE_PDN            0                       # Time in different power states
system.mem_ctrl_0.memoryStateTime::ACT   126590168286                       # Time in different power states
system.mem_ctrl_0.memoryStateTime::ACT_PDN            0                       # Time in different power states
system.mem_ctrl_0.preBackEnergy            1278760320                       # Energy for precharge background per rank (pJ)
system.mem_ctrl_0.preEnergy                 752806560                       # Energy for precharge commands per rank (pJ)
system.mem_ctrl_0.prePowerDownEnergy                0                       # Energy for precharge power-down per rank (pJ)
system.mem_ctrl_0.readEnergy              17544800700                       # Energy for read commands per rank (pJ)
system.mem_ctrl_0.refreshEnergy          10520792880.000002                       # Energy for refresh commands per rank (pJ)
system.mem_ctrl_0.selfRefreshEnergy                 0                       # Energy for self refresh per rank (pJ)
system.mem_ctrl_0.totalEnergy             90774625890                       # Total energy per rank (pJ)
system.mem_ctrl_0.totalIdleTime                     0                       # Total Idle time Per DRAM Rank
system.mem_ctrl_0.writeEnergy                 4379580                       # Energy for write commands per rank (pJ)
system.mem_ctrl_1.actBackEnergy           55589713410                       # Energy for active background per rank (pJ)
system.mem_ctrl_1.actEnergy                 312053700                       # Energy for activate commands per rank (pJ)
system.mem_ctrl_1.actPowerDownEnergy                0                       # Energy for active power-down per rank (pJ)
system.mem_ctrl_1.averagePower             554.224073                       # Core power per rank (mW)
system.mem_ctrl_1.memoryStateTime::IDLE   10804736001                       # Time in different power states
system.mem_ctrl_1.memoryStateTime::REF     4450420000                       # Time in different power states
system.mem_ctrl_1.memoryStateTime::SREF             0                       # Time in different power states
system.mem_ctrl_1.memoryStateTime::PRE_PDN            0                       # Time in different power states
system.mem_ctrl_1.memoryStateTime::ACT   118023904193                       # Time in different power states
system.mem_ctrl_1.memoryStateTime::ACT_PDN            0                       # Time in different power states
system.mem_ctrl_1.preBackEnergy            4366769280                       # Energy for precharge background per rank (pJ)
system.mem_ctrl_1.preEnergy                 165856680                       # Energy for precharge commands per rank (pJ)
system.mem_ctrl_1.prePowerDownEnergy                0                       # Energy for precharge power-down per rank (pJ)
system.mem_ctrl_1.readEnergy               2905123200                       # Energy for read commands per rank (pJ)
system.mem_ctrl_1.refreshEnergy          10520792880.000002                       # Energy for refresh commands per rank (pJ)
system.mem_ctrl_1.selfRefreshEnergy                 0                       # Energy for self refresh per rank (pJ)
system.mem_ctrl_1.totalEnergy             73866463530                       # Total energy per rank (pJ)
system.mem_ctrl_1.totalIdleTime                     0                       # Total Idle time Per DRAM Rank
system.mem_ctrl_1.writeEnergy                 6154380                       # Energy for write commands per rank (pJ)
system.membus.pkt_count_system.cpu.icache_port::system.mem_ctrl.port      4943712                       # Packet count per connected master and slave (bytes)
system.membus.pkt_count_system.cpu.icache_port::total      4943712                       # Packet count per connected master and slave (bytes)
system.membus.pkt_count_system.cpu.dcache_port::system.mem_ctrl.port      1379150                       # Packet count per connected master and slave (bytes)
system.membus.pkt_count_system.cpu.dcache_port::total      1379150                       # Packet count per connected master and slave (bytes)
system.membus.pkt_count::total                6322862                       # Packet count per connected master and slave (bytes)
system.membus.pkt_size_system.cpu.icache_port::system.mem_ctrl.port     19774848                       # Cumulative packet size per connected master and slave (bytes)
system.membus.pkt_size_system.cpu.icache_port::total     19774848                       # Cumulative packet size per connected master and slave (bytes)
system.membus.pkt_size_system.cpu.dcache_port::system.mem_ctrl.port      3762350                       # Cumulative packet size per connected master and slave (bytes)
system.membus.pkt_size_system.cpu.dcache_port::total      3762350                       # Cumulative packet size per connected master and slave (bytes)
system.membus.pkt_size::total                23537198                       # Cumulative packet size per connected master and slave (bytes)
system.membus.pwrStateResidencyTicks::UNDEFINED 133279060194                       # Cumulative time (in ticks) in various power states
system.membus.reqLayer2.occupancy          1113460425                       # Layer occupancy (ticks)
system.membus.reqLayer2.utilization               0.8                       # Layer utilization (%)
system.membus.respLayer0.occupancy         2150323283                       # Layer occupancy (ticks)
system.membus.respLayer0.utilization              1.6                       # Layer utilization (%)
system.membus.respLayer1.occupancy          569700681                       # Layer occupancy (ticks)
system.membus.respLayer1.utilization              0.4                       # Layer utilization (%)
system.membus.snoopTraffic                          0                       # Total snoop traffic (bytes)
system.membus.snoop_fanout::samples           3161431                       # Request fanout histogram
system.membus.snoop_fanout::mean                    0                       # Request fanout histogram
system.membus.snoop_fanout::stdev                   0                       # Request fanout histogram
system.membus.snoop_fanout::underflows              0      0.00%      0.00% # Request fanout histogram
system.membus.snoop_fanout::0                 3161431    100.00%    100.00% # Request fanout histogram
system.membus.snoop_fanout::1                       0      0.00%    100.00% # Request fanout histogram
system.membus.snoop_fanout::overflows               0      0.00%    100.00% # Request fanout histogram
system.membus.snoop_fanout::min_value               0                       # Request fanout histogram
system.membus.snoop_fanout::max_value               0                       # Request fanout histogram
system.membus.snoop_fanout::total             3161431                       # Request fanout histogram
system.membus.snoop_filter.hit_multi_requests            0                       # Number of requests hitting in the snoop filter with multiple (>1) holders of the requested data.
system.membus.snoop_filter.hit_multi_snoops            0                       # Number of snoops hitting in the snoop filter with multiple (>1) holders of the requested data.
system.membus.snoop_filter.hit_single_requests            0                       # Number of requests hitting in the snoop filter with a single holder of the requested data.
system.membus.snoop_filter.hit_single_snoops            0                       # Number of snoops hitting in the snoop filter with a single holder of the requested data.
system.membus.snoop_filter.tot_requests             0                       # Total number of requests made to the snoop filter.
system.membus.snoop_filter.tot_snoops               0                       # Total number of snoops made to the snoop filter.
system.membus.snoops                                0                       # Total snoops (count)
system.membus.trans_dist::ReadReq             2979137                       # Transaction distribution
system.membus.trans_dist::ReadResp            2979137                       # Transaction distribution
system.membus.trans_dist::WriteReq             182294                       # Transaction distribution
system.membus.trans_dist::WriteResp            182294                       # Transaction distribution

---------- End Simulation Statistics   ----------
